
This summary file was generated by TurbSim (v1.06.00a-bjj, 30-Jul-2012) on 09-Apr-2015 at 08:29:28.


Runtime Options:

       202  Random seed #1
    RANLUX  Type of random number generator
         F  Output binary HH turbulence parameters?
         F  Output formatted turbulence parameters?
         F  Output AeroDyn HH files?
         T  Output AeroDyn FF files?
         F  Output BLADED FF files?
         F  Output tower data?
         F  Output formatted FF files?
         F  Output coherent turbulence time step file?
         T  Clockwise rotation when looking downwind?
 1 -   HUB  IEC turbulence models scaled to exact specified standard deviation
         T  Ensure output files contain one full period of periodic (time) output?


Turbine/Model Specifications:

         7  Vertical grid-point matrix dimension
         9  Horizontal grid-point matrix dimension
     0.050  Time step [seconds]
   360.000  Analysis time [seconds]
   360.000  Usable output time [seconds]
    98.189  Hub height [m]
    30.000  Grid height [m]
    40.000  Grid width [m]
     0.000  Vertical flow angle [degrees]
     0.000  Horizontal flow angle [degrees]


Meteorological Boundary Conditions:

    IECKAI  IEC Kaimal spectral model
         3  IEC standard: IEC 61400-3 Ed. 1: 2006
         C  IEC turbulence characteristic
       NTM  IEC Normal Turbulence Model
       N/A  IEC Extreme Turbulence Model (ETM) "c" parameter [m/s]
       IEC  Wind profile type
    98.189  Reference height [m]
    14.000  Reference wind speed [m/s]
       N/A  Jet height [m]
     0.140  Power law exponent
     0.030  Surface roughness length [m]


You have requested that the following file(s) be generated:

   Test003--TSFF.Windfile.bts (AeroDyn/TurbSim full-field wind file)


Turbulence Simulation Scaling Parameter Summary:

   Turbulence model used                            =  IEC Kaimal
   Turbulence characteristic                        =  C
   IEC turbulence type                              =  Normal Turbulence Model
   IEC standard                                     =  IEC 61400-3 Ed. 1: 2006
   Mean wind speed at hub height                    =   14.000 m/s
   Expected value of turbulence intensity at 15 m/s =   12.000%
   Characteristic value of standard deviation       =    1.932 m/s
   Turbulence scale                                 =   42.000 m
   u-component integral scale                       =  340.200 m
   Coherency scale                                  =  340.200 m
   Characteristic value of hub turbulence intensity =   13.800%
   Gradient Richardson number                       =    0.000

   Wind profile type                                =  Power law on rotor disk, logarithmic elsewhere
   Power law exponent                               =    0.140
   Mean shear across rotor disk                     =    0.020 (m/s)/m
   Assumed rotor diameter                           =   30.000 m
   Surface roughness length                         =    0.030 m

   Number of time steps in the FFT                  =     7200
   Number of time steps output                      =     7200


Mean Flow Angles:

   Vertical   =   0.0 degrees
   Horizontal =   0.0 degrees

Mean Wind Speed Profile:

   Height    Wind Speed   Horizontal Angle  U-comp (X)   V-comp (Y)   W-comp (Z)
     (m)        (m/s)         (degrees)       (m/s)        (m/s)        (m/s)   
   ------    ----------   ----------------  ----------   ----------   ----------
    113.2       14.28            0.00         14.28         0.00         0.00
    108.2       14.19            0.00         14.19         0.00         0.00
    103.2       14.10            0.00         14.10         0.00         0.00
     98.2       14.00            0.00         14.00         0.00         0.00
     93.2       13.90            0.00         13.90         0.00         0.00
     88.2       13.79            0.00         13.79         0.00         0.00
     83.2       13.68            0.00         13.68         0.00         0.00


Harvested Random Seeds after Generation of the Random Numbers:

      6322050 K1
            0 K2


Scaling statistics from the hub grid point:

  Component  Target Sigma (m/s)  Simulated Sigma (m/s)  Scaling Factor
  ---------  ------------------  ---------------------  --------------
     u'             1.932                1.896                1.019
     v'             1.546                1.499                1.031
     w'             0.966                0.941                1.027


Hub-Height Simulated Turbulence Statistical Summary:

   Type of Wind        Min (m/s)   Mean (m/s)    Max (m/s)  Sigma (m/s)       TI (%)
   ----------------    ---------   ----------    ---------  -----------       ------
   Longitudinal (u)         8.02        14.00        19.29        1.932       13.800
   Lateral (v)             -5.15         0.00         6.31        1.546       11.040
   Vertical (w)            -3.07         0.00         3.69        0.966        6.900
   U component              8.02        14.00        19.29        1.932       13.800
   V component             -5.15         0.00         6.31        1.546       11.040
   W component             -3.07         0.00         3.69        0.966        6.900
   Horizontal (U&V)         8.24        14.08        19.46        1.939       13.766
   Total                    8.25        14.12        19.51        1.932       13.688

                       Min Reynolds     Mean Reynolds    Max Reynolds    Correlation
   Product             Stress (m/s)^2   Stress (m/s)^2   Stress (m/s)^2  Coefficient
   ----------------    --------------   --------------   --------------  -----------
   u'w'                    -17.210             0.024            10.656         0.013
   u'v'                    -15.130             0.039            22.506         0.013
   v'w'                    -14.482            -0.079            11.813        -0.053


   Friction Velocity (Ustar)  =      0.153 m/s
   Maximum Instantaneous TKE  =     24.088 (m/s)^2
   Maximum Instantaneous CTKE =     11.322 (m/s)^2


Grid Point Variance Summary:

   Y-coord  -20.00  -15.00  -10.00   -5.00    0.00    5.00   10.00   15.00   20.00

   Height   Standard deviation at grid points for the u component:
   113.19    1.704   1.861   1.936   1.757   1.848   1.860   1.847   1.847   1.763
   108.19    1.820   1.898   1.987   1.904   1.885   1.824   1.908   1.817   1.680
   103.19    1.889   1.894   2.015   2.009   2.007   1.805   1.786   1.814   1.733
    98.19    1.896   1.931   1.950   2.040   1.932   1.902   1.870   1.765   1.745
    93.19    1.996   2.067   1.932   1.959   1.898   1.840   1.843   1.699   1.677
    88.19    1.892   1.941   1.922   1.906   1.937   1.877   1.845   1.781   1.753
    83.19    1.838   1.867   1.916   2.028   1.889   1.924   1.873   1.857   1.944

   Height   Standard deviation at grid points for the v component:
   113.19    1.546   1.546   1.546   1.546   1.546   1.546   1.546   1.546   1.546
   108.19    1.546   1.546   1.546   1.546   1.546   1.546   1.546   1.546   1.546
   103.19    1.546   1.546   1.546   1.546   1.546   1.546   1.546   1.546   1.546
    98.19    1.546   1.546   1.546   1.546   1.546   1.546   1.546   1.546   1.546
    93.19    1.546   1.546   1.546   1.546   1.546   1.546   1.546   1.546   1.546
    88.19    1.546   1.546   1.546   1.546   1.546   1.546   1.546   1.546   1.546
    83.19    1.546   1.546   1.546   1.546   1.546   1.546   1.546   1.546   1.546

   Height   Standard deviation at grid points for the w component:
   113.19    0.966   0.966   0.966   0.966   0.966   0.966   0.966   0.966   0.966
   108.19    0.966   0.966   0.966   0.966   0.966   0.966   0.966   0.966   0.966
   103.19    0.966   0.966   0.966   0.966   0.966   0.966   0.966   0.966   0.966
    98.19    0.966   0.966   0.966   0.966   0.966   0.966   0.966   0.966   0.966
    93.19    0.966   0.966   0.966   0.966   0.966   0.966   0.966   0.966   0.966
    88.19    0.966   0.966   0.966   0.966   0.966   0.966   0.966   0.966   0.966
    83.19    0.966   0.966   0.966   0.966   0.966   0.966   0.966   0.966   0.966

   Mean standard deviation across all grid points:
      u component:    1.874 m/s
      v component:    1.546 m/s
      w component:    0.966 m/s


U-component (X) statistics from the hub grid point:

   Mean =  14.0000 m/s
   TI   =  13.8000 %

Nyquist frequency of turbulent wind field =        10.000 Hz


Processing complete.  1.1856 CPU seconds used.
