
This summary file was generated by InflowWind v3.03.00 on 26-Jul-2016 at 14:19:12.

  WindType:   3

TurbSim wind type.  Read by InflowWind sub-module IfW_TSFFWind v1.01.00
   Processed 7200 time steps of 20-Hz full-field data (period of 360 seconds).
     FileName:                    .\data/Test003--TSFF.Windfile.bts
     Binary file format id:         8
     Reference height (m):           98.19    
     Timestep (s):                  0.5000E-01
     Number of timesteps:                 7200
     Mean windspeed (m/s):           14.00    
     Windfile is periodic:        T
     Windfile includes tower:     F
     Time range (s):              [ 0 : 0 ]
     Y range (m):                 [ -20 : 20 ]
     Z range (m):                 [ 83.189 : 113.19 ]

This summary file was closed on 26-Jul-2016 at 14:19:13.

