
This summary file was generated by TurbSim (v1.51a, 25-Oct-2009) on 15-Oct-2009 at 11:06:29.


Runtime Options:

     97413  Random seed #1
    RANLUX  Type of random number generator
         F  Output binary HH turbulence parameters?
         F  Output formatted turbulence parameters?
         T  Output AeroDyn HH files?
         T  Output AeroDyn FF files?
         T  Output BLADED FF files?
         T  Output tower data?
         F  Output formatted FF files?
         T  Output coherent turbulence time step file?
         T  Clockwise rotation when looking downwind?
 0 -  NONE  IEC turbulence models scaled to exact specified standard deviation


Turbine/Model Specifications:

         5  Vertical grid-point matrix dimension
         5  Horizontal grid-point matrix dimension
     0.050  Time step [seconds]
   600.000  Analysis time [seconds]
   602.000  Usable output time [seconds]
    80.000  Hub height [m]
   100.000  Grid height [m]
   100.000  Grid width [m]
     0.000  Vertical flow angle [degrees]
     0.000  Horizontal flow angle [degrees]


Meteorological Boundary Conditions:

    GP_LLJ  Great Plains Low-Level Jet spectral model
       N/A  IEC standard
       N/A  IEC turbulence characteristic
       N/A  IEC turbulence type
       N/A  IEC Extreme Turbulence Model (ETM) "c" parameter [m/s]
       JET  Wind profile type
    80.000  Reference height [m]
    10.000  Reference wind speed [m/s]
CALCULATED  Jet height [m]
       N/A  Power law exponent
     0.005  Surface roughness length [m]


Non-IEC Meteorological Boundary Conditions:

    45.000  Site latitude [degrees]
     0.200  Gradient Richardson number
     1.000  Friction or shear velocity [m/s]
  1616.145  Mixing layer depth [m]
    -1.120  Mean hub u'w' Reynolds stress
     1.144  Mean hub u'v' Reynolds stress
     0.277  Mean hub v'w' Reynolds stress
(    7.319, 0.595E-03)  u-component coherence parameters
(    5.305, 0.848E-03)  v-component coherence parameters
(    3.559, 0.510E-02)  w-component coherence parameters
     0.000  Coherence exponent


Coherent Turbulence Scaling Parameters:

M:\coh_events\eventdata
            Name of the path containing the coherent turbulence data files
       dns  Type of coherent turbulence data files
         T  Randomize the disturbance scale and location?
     1.000  Disturbance scale (ratio of wave height to rotor diameter)
     0.500  Fractional location of tower centerline from right
     0.500  Fractional location of hub height from the bottom of the dataset
    30.000  Minimum start time for coherent structures [seconds]


You have requested that the following file(s) be generated:

   InOut\InOut.hh  (AeroDyn hub-height file)
   InOut\InOut.bts (AeroDyn/TurbSim full-field wind file)
   InOut\InOut.wnd (AeroDyn/BLADED full-field wnd file)
   InOut\InOut.twr (Binary tower twr file)
   InOut\InOut.cts (AeroDyn coherent turbulence time step file)


Turbulence Simulation Scaling Parameter Summary:

   Turbulence model used                            =  Great Plains Low-Level Jet
   Gradient Richardson number                       =    0.200
   Monin-Obukhov (M-O) z/L parameter                =    1.000
   Monin-Obukhov (M-O) length scale                 =   80.000 m
   Mean wind speed at hub height                    =   10.000 m/s

   Wind profile type                                =  Low-level jet
   Jet height                                       =  490.000 m
   Jet wind speed                                   =    9.491 m/s
   Upper limit of observed jet wind speed           =   30.876 m/s
   Equivalent power law exponent across rotor disk  =    0.272
   Mean shear across rotor disk                     =    0.036 (m/s)/m
   Assumed rotor diameter                           =  100.000 m
   Surface roughness length                         =    0.005 m

   Number of time steps in the FFT                  =    12240
   Number of time steps output                      =    12240


Mean Flow Angles:

   Vertical   =   0.0 degrees
   Horizontal =   0.0 degrees

Mean Wind Speed Profile:

   Height    Wind Speed   Horizontal Angle  U-comp (X)   V-comp (Y)   W-comp (Z)   z/L(z)    u*(z)
     (m)        (m/s)         (degrees)       (m/s)        (m/s)        (m/s)       (-)      (m/s)
   ------    ----------   ----------------  ----------   ----------   ----------   ------   ------
    130.0       11.03           -0.13         11.03        -0.02         0.00       1.006    0.955
    105.0       10.70           -0.38         10.70        -0.07         0.00       1.004    1.007
     80.0       10.00            0.00         10.00         0.00         0.00       1.001    1.058
     55.0        8.86            1.15          8.86         0.18         0.00       0.995    1.025
     30.0        7.40            3.35          7.39         0.43         0.00       0.794    1.025
      5.0        5.50            8.76          5.44         0.84         0.00       0.593    1.025


Harvested Random Seeds after Generation of the Random Numbers:

      4435470 K1
            0 K2


Scaling statistics from the hub grid point:

   Cross-Component  Scaling Factor
   ---------------  --------------
   u'w'               -0.30167E+00
   u'v'                0.36452E+00
   v'w'                0.39064E+00


Hub-Height Simulated Turbulence Statistical Summary:

   Type of Wind        Min (m/s)   Mean (m/s)    Max (m/s)  Sigma (m/s)       TI (%)
   ----------------    ---------   ----------    ---------  -----------       ------
   Longitudinal (u)         3.34        10.00        16.32        1.889       18.892
   Lateral (v)             -8.80         0.00         6.89        1.859       18.594
   Vertical (w)            -5.11         0.00         5.88        1.423       14.231
   U component              3.34        10.00        16.32        1.889       18.892
   V component             -8.80         0.00         6.89        1.859       18.594
   W component             -5.11         0.00         5.88        1.423       14.231
   Horizontal (U&V)         3.79        10.18        16.69        1.869       18.367
   Total                    4.73        10.28        16.72        1.844       17.941

                       Min Reynolds     Mean Reynolds    Max Reynolds    Correlation
   Product             Stress (m/s)^2   Stress (m/s)^2   Stress (m/s)^2  Coefficient
   ----------------    --------------   --------------   --------------  -----------
   u'w'                    -24.169            -1.120            11.579        -0.417
   u'v'                    -17.584             1.144            40.492         0.326
   v'w'                    -13.011             0.277            21.654         0.105


   Friction Velocity (Ustar)  =      1.058 m/s
   Maximum Instantaneous TKE  =     48.153 (m/s)^2
   Maximum Instantaneous CTKE =     20.820 (m/s)^2


Grid Point Variance Summary:

   Y-coord  -50.00  -25.00    0.00   25.00   50.00

   Height   Standard deviation at grid points for the u component:
   130.00    1.792   1.753   1.716   1.860   1.733
   105.00    1.755   1.809   1.801   1.855   1.929
    80.00    1.894   1.855   1.889   1.842   1.940
    55.00    1.889   1.975   1.889   1.937   1.841
    30.00    1.970   1.979   2.036   1.994   2.060

   Height   Standard deviation at grid points for the v component:
   130.00    1.670   1.725   1.735   1.758   1.677
   105.00    1.764   1.720   1.694   1.795   1.750
    80.00    1.810   1.864   1.859   1.829   1.806
    55.00    1.782   1.756   1.786   1.783   1.780
    30.00    1.701   1.719   1.777   1.762   1.844

   Height   Standard deviation at grid points for the w component:
   130.00    1.290   1.266   1.284   1.296   1.285
   105.00    1.318   1.388   1.307   1.291   1.415
    80.00    1.354   1.361   1.423   1.410   1.448
    55.00    1.340   1.328   1.313   1.369   1.353
    30.00    1.378   1.334   1.331   1.358   1.376

   Mean standard deviation across all grid points:
      u component:    1.880 m/s
      v component:    1.766 m/s
      w component:    1.345 m/s


Average expected time between events =  302.552 seconds
Number of coherent events            =        2
Predicted length of coherent events  =   51.391 seconds
Length of coherent events            =   51.978 seconds
Maximum predicted event CTKE         =    9.304 (m/s)^2


U-component (X) statistics from the hub grid point:

   Mean =  10.0000 m/s
   TI   =  18.8923 %


Normalizing Parameters for Binary Data (approximate statistics):

   UBar  =  10.0000 m/s
   TI(u) =  18.8923 %
   TI(v) =  18.5937 %
   TI(w) =  14.2311 %

   Height Offset =   0.0000 m
   Grid Base     =  30.0000 m

Nyquist frequency of turbulent wind field =        10.000 Hz
Nyquist frequency of coherent turbulent events =    6.974 Hz


Processing complete.  0.79688 CPU seconds used.
